<?xml version="1.0" encoding="UTF-8"?>
<additional xmlns:xsi="http://www.w3.org/2001/XMLSchema-instance" xsi:noNamespaceSchemaLocation="http://sumo.dlr.de/xsd/additional_file.xsd">
    <!-- Cybercab taxi stands, demand-weighted: idle taxis drive
         themselves to these stands (device.taxi idle-algorithm
         taxistand), so stand placement IS idle-supply placement.
         Sites = densest 500 m pickup cells of the full
         18-19h MATSim pool + coverage for populated outer slots.
         Generated by scripts/build_berlin_taxi_stands.py. -->
    <parkingArea id="cybercab_depot" lane="8036812#2_0" startPos="118.0" endPos="132.0" roadsideCapacity="60" onRoad="false" friendlyPos="true"/>
    <chargingStation id="cybercab_depot_charging" lane="8036812#2_0" startPos="118.0" endPos="132.0" power="150000" totalPower="9000000" efficiency="0.95" chargeDelay="0" chargeInTransit="false" parkingArea="cybercab_depot"/>
    <parkingArea id="cybercab_stand_00" lane="24619223_0" startPos="15.0" endPos="60.0" roadsideCapacity="2" onRoad="false" friendlyPos="true"/> <!-- demand cell (4 pickups) -->
    <parkingArea id="cybercab_stand_01" lane="37036260#5_0" startPos="15.0" endPos="60.0" roadsideCapacity="2" onRoad="false" friendlyPos="true"/> <!-- demand cell (4 pickups) -->
    <parkingArea id="cybercab_stand_02" lane="4581909#1_0" startPos="15.0" endPos="60.0" roadsideCapacity="2" onRoad="false" friendlyPos="true"/> <!-- demand cell (4 pickups) -->
    <parkingArea id="cybercab_stand_03" lane="42103968_0" startPos="15.0" endPos="60.0" roadsideCapacity="2" onRoad="false" friendlyPos="true"/> <!-- demand cell (4 pickups) -->
    <parkingArea id="cybercab_stand_04" lane="4600236#1_0" startPos="15.0" endPos="60.0" roadsideCapacity="2" onRoad="false" friendlyPos="true"/> <!-- demand cell (4 pickups) -->
    <parkingArea id="cybercab_stand_05" lane="150512436#0_0" startPos="15.0" endPos="60.0" roadsideCapacity="2" onRoad="false" friendlyPos="true"/> <!-- demand cell (4 pickups) -->
    <parkingArea id="cybercab_stand_06" lane="-4615989#4_0" startPos="15.0" endPos="60.0" roadsideCapacity="2" onRoad="false" friendlyPos="true"/> <!-- coverage slot r0c5 (8 pickups) -->
    <parkingArea id="cybercab_stand_07" lane="-4581847#0_0" startPos="15.0" endPos="60.0" roadsideCapacity="2" onRoad="false" friendlyPos="true"/> <!-- coverage slot r4c0 (5 pickups) -->
    <rerouter id="txl_adac_cybercab_taxi_stands" edges="8036812#2 24619223 37036260#5 4581909#1 42103968 4600236#1 150512436#0 -4615989#4 -4581847#0" vTypes="CybercabRobotaxi">
        <interval begin="0" end="86400">
            <parkingAreaReroute id="cybercab_stand_00"/>
            <parkingAreaReroute id="cybercab_stand_01"/>
            <parkingAreaReroute id="cybercab_stand_02"/>
            <parkingAreaReroute id="cybercab_stand_03"/>
            <parkingAreaReroute id="cybercab_stand_04"/>
            <parkingAreaReroute id="cybercab_stand_05"/>
            <parkingAreaReroute id="cybercab_stand_06"/>
            <parkingAreaReroute id="cybercab_stand_07"/>
        </interval>
    </rerouter>
</additional>
