<?xml version="1.0" encoding="UTF-8"?>
<additional xmlns:xsi="http://www.w3.org/2001/XMLSchema-instance" xsi:noNamespaceSchemaLocation="http://sumo.dlr.de/xsd/additional_file.xsd">
    <poly
        id="txl_adac_cybercab_depot_footprint"
        color="35,35,35,180"
        fill="1"
        layer="-10"
        shape="12558.00,19638.00 12692.00,19638.00 12692.00,19762.00 12558.00,19762.00" />

    <poly
        id="txl_adac_cybercab_depot_outline"
        color="255,195,0,255"
        fill="0"
        lineWidth="1.6"
        layer="10"
        shape="12558.00,19638.00 12692.00,19638.00 12692.00,19762.00 12558.00,19762.00 12558.00,19638.00" />

    <parkingArea
        id="txl_adac_cybercab_depot"
        lane="8036812#2_0"
        startPos="118.0"
        endPos="132.0"
        roadsideCapacity="0"
        onRoad="false"
        friendlyPos="true">
        <space x="12588.00" y="19690.00" width="4.0" length="7.0" angle="90"/>
        <space x="12608.00" y="19690.00" width="4.0" length="7.0" angle="90"/>
        <space x="12628.00" y="19690.00" width="4.0" length="7.0" angle="90"/>
        <space x="12648.00" y="19690.00" width="4.0" length="7.0" angle="90"/>
        <space x="12668.00" y="19690.00" width="4.0" length="7.0" angle="90"/>
        <space x="12588.00" y="19708.00" width="4.0" length="7.0" angle="90"/>
        <space x="12608.00" y="19708.00" width="4.0" length="7.0" angle="90"/>
        <space x="12628.00" y="19708.00" width="4.0" length="7.0" angle="90"/>
        <space x="12648.00" y="19708.00" width="4.0" length="7.0" angle="90"/>
        <space x="12668.00" y="19708.00" width="4.0" length="7.0" angle="90"/>
        <space x="12588.00" y="19726.00" width="4.0" length="7.0" angle="90"/>
        <space x="12608.00" y="19726.00" width="4.0" length="7.0" angle="90"/>
        <space x="12628.00" y="19726.00" width="4.0" length="7.0" angle="90"/>
        <space x="12648.00" y="19726.00" width="4.0" length="7.0" angle="90"/>
        <space x="12668.00" y="19726.00" width="4.0" length="7.0" angle="90"/>
        <space x="12588.00" y="19744.00" width="4.0" length="7.0" angle="90"/>
        <space x="12608.00" y="19744.00" width="4.0" length="7.0" angle="90"/>
        <space x="12628.00" y="19744.00" width="4.0" length="7.0" angle="90"/>
        <space x="12648.00" y="19744.00" width="4.0" length="7.0" angle="90"/>
        <space x="12668.00" y="19744.00" width="4.0" length="7.0" angle="90"/>
    </parkingArea>

    <chargingStation
        id="txl_adac_wireless_charging"
        lane="8036812#2_0"
        startPos="118.0"
        endPos="132.0"
        power="150000"
        totalPower="3000000"
        efficiency="0.95"
        chargeDelay="0"
        chargeInTransit="false"
        parkingArea="txl_adac_cybercab_depot" />

    <rerouter
        id="txl_adac_cybercab_taxi_stands"
        edges="8036812#2 -8036812#2"
        vTypes="CybercabRobotaxi">
        <interval begin="0" end="86400">
            <parkingAreaReroute id="txl_adac_cybercab_depot" />
        </interval>
    </rerouter>
</additional>
